<?xml version="1.0" encoding="UTF-8"?>

<!-- generated on 2023-08-04 09:48:26 by Eclipse SUMO netedit Version 1.14.1
<configuration xmlns:xsi="http://www.w3.org/2001/XMLSchema-instance" xsi:noNamespaceSchemaLocation="http://sumo.dlr.de/xsd/netconvertConfiguration.xsd">

    <input>
        <sumo-net-file value="/home/pinkman/PycharmProjects/VectorNet/data_process/hd_maps/University@Alafaya.net.xml"/>
    </input>

    <output>
        <output-file value="/home/pinkman/PycharmProjects/VectorNet/data_process/hd_maps/University@Alafaya.net.xml"/>
    </output>

    <processing>
        <geometry.min-radius.fix.railways value="false"/>
        <geometry.max-grade.fix value="false"/>
        <offset.disable-normalization value="true"/>
        <lefthand value="false"/>
    </processing>

    <junctions>
        <no-turnarounds value="true"/>
        <junctions.corner-detail value="5"/>
        <junctions.limit-turn-speed value="5.5"/>
        <rectangular-lane-cut value="true"/>
    </junctions>

    <pedestrian>
        <walkingareas value="false"/>
    </pedestrian>

</configuration>
-->

<net version="1.9" junctionCornerDetail="5" rectangularLaneCut="true" limitTurnSpeed="5.50" xmlns:xsi="http://www.w3.org/2001/XMLSchema-instance" xsi:noNamespaceSchemaLocation="http://sumo.dlr.de/xsd/net_file.xsd">

    <location netOffset="1155.08,1296.74" convBoundary="211.19,0.00,599.14,1862.78" origBoundary="0.000000,0.000000,0.000000,0.000000" projParameter="+proj=tmerc +lat_0=28.602308 +lon_0=-81.200208 +k=1 +x_0=0 +y_0=0 +datum=WGS84 +units=m +geoidgrids=egm96_15.gtx +vunits=m +no_defs "/>

    <type id="bidirectional" priority="1" speed="1.39" disallow="pedestrian tram rail_urban rail rail_electric rail_fast ship" width="3.65"/>
    <type id="biking" priority="-1" speed="5.56" allow="bicycle" width="1.50"/>
    <type id="border" priority="0" speed="1.39" disallow="all" discard="1" width="0.10"/>
    <type id="driving" priority="1" speed="13.89" disallow="pedestrian tram rail_urban rail rail_electric rail_fast ship" width="3.65"/>
    <type id="entry" priority="1" speed="22.22" disallow="pedestrian tram rail_urban rail rail_electric rail_fast ship" width="3.65"/>
    <type id="exit" priority="1" speed="22.22" disallow="pedestrian tram rail_urban rail rail_electric rail_fast ship" width="3.65"/>
    <type id="median" priority="0" speed="1.39" disallow="all" discard="1" width="0.10"/>
    <type id="mwyEntry" priority="1" speed="22.22" allow="private emergency authority army vip passenger hov taxi bus coach delivery truck trailer motorcycle evehicle custom1 custom2" width="3.65"/>
    <type id="mwyExit" priority="1" speed="22.22" allow="private emergency authority army vip passenger hov taxi bus coach delivery truck trailer motorcycle evehicle custom1 custom2" width="3.65"/>
    <type id="none" priority="0" speed="1.39" disallow="all" discard="1" width="1.00"/>
    <type id="offRamp" priority="1" speed="22.22" allow="private emergency authority army vip passenger hov taxi bus coach delivery truck trailer motorcycle evehicle custom1 custom2" width="3.65"/>
    <type id="onRamp" priority="1" speed="22.22" allow="private emergency authority army vip passenger hov taxi bus coach delivery truck trailer motorcycle evehicle custom1 custom2" width="3.65"/>
    <type id="parking" priority="1" speed="1.39" disallow="pedestrian tram rail_urban rail rail_electric rail_fast ship" width="2.50"/>
    <type id="rail" priority="3" speed="33.33" allow="rail_urban rail rail_electric rail_fast" width="3.65"/>
    <type id="restricted" priority="0" speed="13.89" disallow="all" width="3.65"/>
    <type id="roadWorks" priority="0" speed="1.39" allow="authority" width="3.65"/>
    <type id="shoulder" priority="0" speed="1.39" disallow="all" discard="1" width="1.00"/>
    <type id="sidewalk" priority="-2" speed="2.78" allow="pedestrian" width="2.50"/>
    <type id="special1" priority="1" speed="22.22" allow="custom1" discard="1" width="3.65"/>
    <type id="special2" priority="1" speed="22.22" allow="custom2" discard="1" width="3.65"/>
    <type id="special3" priority="1" speed="22.22" allow="custom1 custom2" discard="1" width="3.65"/>
    <type id="stop" priority="1" speed="13.89" disallow="pedestrian tram rail_urban rail rail_electric rail_fast ship" width="3.65"/>
    <type id="tram" priority="2" speed="13.89" allow="tram" width="3.65"/>

    <edge id=":105_0" function="internal">
        <lane id=":105_0_0" index="0" disallow="pedestrian tram rail_urban rail rail_electric rail_fast ship" speed="10.86" length="26.29" width="3.50" shape="398.38,824.38 397.26,817.01 394.25,811.72 389.34,808.52 382.55,807.40"/>
        <lane id=":105_0_1" index="1" disallow="pedestrian tram rail_urban rail rail_electric rail_fast ship" speed="11.41" length="29.15" width="3.50" shape="398.38,824.38 397.24,815.48 394.22,809.10 389.34,805.24 382.58,803.90"/>
        <lane id=":105_0_2" index="2" disallow="pedestrian tram rail_urban rail rail_electric rail_fast ship" speed="11.95" length="32.09" width="3.50" shape="398.38,824.38 397.21,813.95 394.20,806.47 389.33,801.96 382.62,800.40"/>
    </edge>
    <edge id=":105_3" function="internal">
        <lane id=":105_3_0" index="0" disallow="pedestrian tram rail_urban rail rail_electric rail_fast ship" speed="17.88" length="59.24" width="3.50" shape="403.13,824.29 401.55,764.97"/>
        <lane id=":105_3_1" index="1" disallow="pedestrian tram rail_urban rail rail_electric rail_fast ship" speed="17.88" length="59.24" width="3.50" shape="406.64,824.22 405.05,765.00"/>
        <lane id=":105_3_2" index="2" disallow="pedestrian tram rail_urban rail rail_electric rail_fast ship" speed="17.88" length="59.24" width="3.50" shape="410.16,824.15 408.55,765.04"/>
    </edge>
    <edge id=":105_6" function="internal">
        <lane id=":105_6_0" index="0" disallow="pedestrian tram rail_urban rail rail_electric rail_fast ship" speed="15.63" length="46.36" width="3.50" shape="413.66,824.08 415.49,806.85 421.76,794.68 432.48,787.58 434.95,787.25"/>
        <lane id=":105_6_1" index="1" disallow="pedestrian tram rail_urban rail rail_electric rail_fast ship" speed="15.23" length="46.07" width="3.75" shape="413.66,824.08 415.51,808.43 421.77,797.40 432.45,790.98 437.58,790.37"/>
        <lane id=":105_6_2" index="2" disallow="pedestrian tram rail_urban rail rail_electric rail_fast ship" speed="14.40" length="44.57" width="3.75" shape="417.16,824.01 418.82,810.07 424.41,800.25 433.95,794.53 442.01,793.57"/>
    </edge>
    <edge id=":105_36" function="internal">
        <lane id=":105_36_0" index="0" disallow="pedestrian tram rail_urban rail rail_electric rail_fast ship" speed="15.63" length="12.81" width="3.50" shape="434.95,787.25 447.65,785.55"/>
    </edge>
    <edge id=":105_37" function="internal">
        <lane id=":105_37_0" index="0" disallow="pedestrian tram rail_urban rail rail_electric rail_fast ship" speed="15.23" length="10.03" width="3.75" shape="437.58,790.37 447.54,789.18"/>
    </edge>
    <edge id=":105_38" function="internal">
        <lane id=":105_38_0" index="0" disallow="pedestrian tram rail_urban rail rail_electric rail_fast ship" speed="14.40" length="5.46" width="3.75" shape="442.01,793.57 447.43,792.93"/>
    </edge>
    <edge id=":105_9" function="internal">
        <lane id=":105_9_0" index="0" disallow="pedestrian tram rail_urban rail rail_electric rail_fast ship" speed="10.22" length="24.81" width="3.25" shape="446.92,811.45 439.03,811.94 433.43,814.15 430.12,818.09 429.11,823.74"/>
        <lane id=":105_9_1" index="1" disallow="pedestrian tram rail_urban rail rail_electric rail_fast ship" speed="10.78" length="27.74" width="3.25" shape="446.92,811.45 437.60,811.89 430.99,814.10 427.08,818.07 425.86,823.81"/>
        <lane id=":105_9_2" index="2" disallow="pedestrian tram rail_urban rail rail_electric rail_fast ship" speed="11.32" length="30.71" width="3.25" shape="446.92,811.45 436.18,811.85 428.55,814.05 424.03,818.06 422.61,823.88"/>
    </edge>
    <edge id=":105_12" function="internal">
        <lane id=":105_12_0" index="0" disallow="pedestrian tram rail_urban rail rail_electric rail_fast ship" speed="15.64" length="64.61" width="3.50" shape="446.92,811.45 382.55,807.40"/>
        <lane id=":105_12_1" index="1" disallow="pedestrian tram rail_urban rail rail_electric rail_fast ship" speed="15.64" length="64.61" width="3.50" shape="447.06,807.95 382.58,803.90"/>
        <lane id=":105_12_2" index="2" disallow="pedestrian tram rail_urban rail rail_electric rail_fast ship" speed="15.64" length="64.61" width="3.50" shape="447.20,804.45 382.62,800.40"/>
    </edge>
    <edge id=":105_15" function="internal">
        <lane id=":105_15_0" index="0" disallow="pedestrian tram rail_urban rail rail_electric rail_fast ship" speed="16.94" length="53.03" width="3.50" shape="447.35,800.95 427.18,797.99 412.83,791.01 404.28,780.00 403.79,777.29"/>
        <lane id=":105_15_1" index="1" disallow="pedestrian tram rail_urban rail rail_electric rail_fast ship" speed="16.57" length="52.90" width="3.50" shape="447.35,800.95 428.71,798.05 415.45,791.09 407.56,780.08 406.66,774.63"/>
        <lane id=":105_15_2" index="2" disallow="pedestrian tram rail_urban rail rail_electric rail_fast ship" speed="15.83" length="52.05" width="3.50" shape="447.49,797.44 430.34,794.81 418.13,788.54 410.87,778.61 409.41,770.06"/>
    </edge>
    <edge id=":105_39" function="internal">
        <lane id=":105_39_0" index="0" disallow="pedestrian tram rail_urban rail rail_electric rail_fast ship" speed="16.94" length="12.53" width="3.50" shape="403.79,777.29 401.55,764.97"/>
    </edge>
    <edge id=":105_40" function="internal">
        <lane id=":105_40_0" index="0" disallow="pedestrian tram rail_urban rail rail_electric rail_fast ship" speed="16.57" length="9.76" width="3.50" shape="406.66,774.63 405.05,765.00"/>
    </edge>
    <edge id=":105_41" function="internal">
        <lane id=":105_41_0" index="0" disallow="pedestrian tram rail_urban rail rail_electric rail_fast ship" speed="15.83" length="5.09" width="3.50" shape="409.41,770.06 408.55,765.04"/>
    </edge>
    <edge id=":105_18" function="internal">
        <lane id=":105_18_0" index="0" disallow="pedestrian tram rail_urban rail rail_electric rail_fast ship" speed="11.16" length="27.85" width="3.50" shape="433.39,765.30 434.28,774.01 436.96,780.28 441.41,784.13 447.65,785.55"/>
        <lane id=":105_18_1" index="1" disallow="pedestrian tram rail_urban rail rail_electric rail_fast ship" speed="11.74" length="30.93" width="3.75" shape="433.39,765.30 434.28,775.59 436.93,783.00 441.35,787.53 447.54,789.18"/>
        <lane id=":105_18_2" index="2" disallow="pedestrian tram rail_urban rail rail_electric rail_fast ship" speed="12.32" length="34.19" width="3.75" shape="433.39,765.30 434.27,777.24 436.90,785.82 441.29,791.05 447.43,792.93"/>
    </edge>
    <edge id=":105_21" function="internal">
        <lane id=":105_21_0" index="0" disallow="pedestrian tram rail_urban rail rail_electric rail_fast ship" speed="17.88" length="58.51" width="3.25" shape="428.74,765.30 429.11,823.74"/>
        <lane id=":105_21_1" index="1" disallow="pedestrian tram rail_urban rail rail_electric rail_fast ship" speed="17.88" length="58.51" width="3.25" shape="425.24,765.30 425.86,823.81"/>
        <lane id=":105_21_2" index="2" disallow="pedestrian tram rail_urban rail rail_electric rail_fast ship" speed="17.88" length="58.51" width="3.25" shape="421.74,765.30 422.61,823.88"/>
    </edge>
    <edge id=":105_24" function="internal">
        <lane id=":105_24_0" index="0" disallow="pedestrian tram rail_urban rail rail_electric rail_fast ship" speed="15.64" length="49.31" width="3.50" shape="418.24,765.30 416.01,783.86 409.32,797.06 398.16,804.91 396.00,805.25"/>
        <lane id=":105_24_1" index="1" disallow="pedestrian tram rail_urban rail rail_electric rail_fast ship" speed="15.64" length="49.60" width="3.50" shape="418.24,765.30 416.01,782.33 409.33,794.43 398.18,801.62 392.90,802.39"/>
        <lane id=":105_24_2" index="2" disallow="pedestrian tram rail_urban rail rail_electric rail_fast ship" speed="15.21" length="48.36" width="3.50" shape="414.61,765.30 412.62,780.78 406.62,791.79 396.62,798.33 388.44,799.54"/>
    </edge>
    <edge id=":105_42" function="internal">
        <lane id=":105_42_0" index="0" disallow="pedestrian tram rail_urban rail rail_electric rail_fast ship" speed="15.64" length="13.63" width="3.50" shape="396.00,805.25 382.55,807.40"/>
    </edge>
    <edge id=":105_43" function="internal">
        <lane id=":105_43_0" index="0" disallow="pedestrian tram rail_urban rail rail_electric rail_fast ship" speed="15.64" length="10.43" width="3.50" shape="392.90,802.39 382.58,803.90"/>
    </edge>
    <edge id=":105_44" function="internal">
        <lane id=":105_44_0" index="0" disallow="pedestrian tram rail_urban rail rail_electric rail_fast ship" speed="15.21" length="5.88" width="3.50" shape="388.44,799.54 382.62,800.40"/>
    </edge>
    <edge id=":105_27" function="internal">
        <lane id=":105_27_0" index="0" disallow="pedestrian tram rail_urban rail rail_electric rail_fast ship" speed="10.77" length="26.73" width="3.50" shape="382.81,779.14 390.96,778.39 396.79,775.78 400.32,771.31 401.55,764.97"/>
        <lane id=":105_27_1" index="1" disallow="pedestrian tram rail_urban rail rail_electric rail_fast ship" speed="11.33" length="29.74" width="3.50" shape="382.81,779.14 392.49,778.42 399.42,775.83 403.61,771.35 405.05,765.00"/>
        <lane id=":105_27_2" index="2" disallow="pedestrian tram rail_urban rail rail_electric rail_fast ship" speed="11.89" length="32.82" width="3.50" shape="382.81,779.14 394.02,778.45 402.04,775.87 406.89,771.40 408.55,765.04"/>
    </edge>
    <edge id=":105_30" function="internal">
        <lane id=":105_30_0" index="0" disallow="pedestrian tram rail_urban rail rail_electric rail_fast ship" speed="15.64" length="64.95" width="3.50" shape="382.75,782.39 447.65,785.55"/>
        <lane id=":105_30_1" index="1" disallow="pedestrian tram rail_urban rail rail_electric rail_fast ship" speed="15.64" length="64.95" width="3.75" shape="382.68,785.76 447.54,789.18"/>
        <lane id=":105_30_2" index="2" disallow="pedestrian tram rail_urban rail rail_electric rail_fast ship" speed="15.64" length="64.95" width="3.75" shape="382.61,789.14 447.43,792.93"/>
    </edge>
    <edge id=":105_33" function="internal">
        <lane id=":105_33_0" index="0" disallow="pedestrian tram rail_urban rail rail_electric rail_fast ship" speed="16.63" length="62.67" width="3.25" shape="382.54,792.51 402.68,794.81 417.16,800.79 425.97,810.43 429.11,823.74"/>
        <lane id=":105_33_1" index="1" disallow="pedestrian tram rail_urban rail rail_electric rail_fast ship" speed="16.27" length="59.95" width="3.25" shape="382.54,792.51 401.26,794.79 414.72,800.77 422.92,810.44 425.86,823.81"/>
        <lane id=":105_33_2" index="2" disallow="pedestrian tram rail_urban rail rail_electric rail_fast ship" speed="15.56" length="54.80" width="3.25" shape="382.48,795.89 399.82,797.94 412.30,803.29 419.89,811.93 422.61,823.88"/>
    </edge>
    <edge id=":13#1_0" function="internal">
        <lane id=":13#1_0_0" index="0" disallow="pedestrian tram rail_urban rail rail_electric rail_fast ship" speed="13.41" length="2.89" width="3.50" shape="481.21,793.97 483.97,795.11"/>
        <lane id=":13#1_0_1" index="1" disallow="pedestrian tram rail_urban rail rail_electric rail_fast ship" speed="13.41" length="2.89" width="3.75" shape="479.62,797.23 482.29,798.32"/>
        <lane id=":13#1_0_2" index="2" disallow="pedestrian tram rail_urban rail rail_electric rail_fast ship" speed="13.41" length="2.89" width="3.75" shape="477.97,800.60 480.56,801.64"/>
    </edge>
    <edge id=":13#2_0" function="internal">
        <lane id=":13#2_0_0" index="0" disallow="all" speed="13.41" length="7.01" width="0.30" shape="519.26,817.35 521.10,818.47 522.68,818.75 524.24,819.03 526.06,820.19"/>
        <lane id=":13#2_0_1" index="1" disallow="all" speed="13.41" length="7.01" width="0.50" shape="518.99,817.65 520.83,818.77 522.41,819.04 523.97,819.33 525.78,820.48"/>
        <lane id=":13#2_0_2" index="2" disallow="all" speed="13.41" length="7.01" width="2.99" shape="518.66,818.02 520.33,819.25 521.64,819.87 522.95,820.50 524.59,821.76"/>
        <lane id=":13#2_0_3" index="3" disallow="pedestrian tram rail_urban rail rail_electric rail_fast ship" speed="13.41" length="7.01" width="3.50" shape="517.33,819.51 522.38,824.14"/>
        <lane id=":13#2_0_4" index="4" disallow="pedestrian tram rail_urban rail rail_electric rail_fast ship" speed="13.41" length="7.01" width="3.75" shape="514.91,822.21 519.91,826.79"/>
        <lane id=":13#2_0_5" index="5" disallow="pedestrian tram rail_urban rail rail_electric rail_fast ship" speed="13.41" length="7.01" width="3.75" shape="512.41,825.01 517.35,829.53"/>
        <lane id=":13#2_0_6" index="6" disallow="all" speed="13.41" length="7.01" width="0.35" shape="511.08,826.50 515.96,831.03"/>
    </edge>
    <edge id=":442_0" function="internal">
        <lane id=":442_0_0" index="0" disallow="pedestrian tram rail_urban rail rail_electric rail_fast ship" speed="17.88" length="18.01" width="3.25" shape="320.77,777.59 338.76,778.57"/>
        <lane id=":442_0_1" index="1" disallow="pedestrian tram rail_urban rail rail_electric rail_fast ship" speed="17.88" length="18.01" width="3.25" shape="320.73,781.26 338.73,781.82"/>
        <lane id=":442_0_2" index="2" disallow="pedestrian tram rail_urban rail rail_electric rail_fast ship" speed="17.88" length="18.01" width="3.50" shape="320.70,784.63 338.69,785.19"/>
        <lane id=":442_0_3" index="3" disallow="pedestrian tram rail_urban rail rail_electric rail_fast ship" speed="17.88" length="18.01" width="3.25" shape="320.66,788.01 338.66,788.57"/>
        <lane id=":442_0_4" index="4" disallow="pedestrian tram rail_urban rail rail_electric rail_fast ship" speed="17.88" length="18.01" width="3.51" shape="320.63,791.44 338.62,791.95"/>
        <lane id=":442_0_5" index="5" disallow="pedestrian tram rail_urban rail rail_electric rail_fast ship" speed="17.88" length="18.01" width="3.24" shape="320.59,794.85 338.59,795.32"/>
    </edge>
    <edge id=":525_0" function="internal">
        <lane id=":525_0_0" index="0" allow="bicycle" speed="17.88" length="29.48" width="1.50" shape="399.19,724.10 399.05,694.57"/>
        <lane id=":525_0_1" index="1" disallow="pedestrian tram rail_urban rail rail_electric rail_fast ship" speed="17.88" length="29.48" width="3.50" shape="401.69,724.10 401.55,694.60"/>
        <lane id=":525_0_2" index="2" disallow="pedestrian tram rail_urban rail rail_electric rail_fast ship" speed="17.88" length="29.48" width="3.50" shape="405.19,724.10 405.05,694.64"/>
        <lane id=":525_0_3" index="3" disallow="pedestrian tram rail_urban rail rail_electric rail_fast ship" speed="17.88" length="29.48" width="3.50" shape="408.69,724.10 408.55,694.68"/>
    </edge>
    <edge id=":63#1_0" function="internal">
        <lane id=":63#1_0_0" index="0" disallow="pedestrian tram rail_urban rail rail_electric rail_fast ship" speed="13.41" length="8.05" width="3.50" shape="377.39,807.33 369.37,807.21"/>
        <lane id=":63#1_0_1" index="1" disallow="pedestrian tram rail_urban rail rail_electric rail_fast ship" speed="13.41" length="8.05" width="3.50" shape="377.46,803.83 369.41,803.71"/>
        <lane id=":63#1_0_2" index="2" disallow="pedestrian tram rail_urban rail rail_electric rail_fast ship" speed="13.41" length="8.05" width="3.50" shape="377.53,800.33 369.44,800.21"/>
    </edge>
    <edge id=":63#2_0" function="internal">
        <lane id=":63#2_0_0" index="0" allow="emergency authority" speed="13.41" length="3.08" width="3.33" shape="366.11,809.81 365.17,809.92 364.55,810.18 363.93,810.43 362.99,810.53"/>
        <lane id=":63#2_0_1" index="1" disallow="pedestrian tram rail_urban rail rail_electric rail_fast ship" speed="13.41" length="3.08" width="3.50" shape="366.13,807.16 363.06,807.12"/>
        <lane id=":63#2_0_2" index="2" disallow="pedestrian tram rail_urban rail rail_electric rail_fast ship" speed="13.41" length="3.08" width="3.50" shape="366.17,803.67 363.13,803.62"/>
        <lane id=":63#2_0_3" index="3" disallow="pedestrian tram rail_urban rail rail_electric rail_fast ship" speed="13.41" length="3.08" width="3.50" shape="366.20,800.17 363.20,800.12"/>
    </edge>
    <edge id=":850_0" function="internal">
        <lane id=":850_0_0" index="0" disallow="pedestrian tram rail_urban rail rail_electric rail_fast ship" speed="13.41" length="22.38" width="3.50" shape="335.24,810.21 328.65,809.73 324.19,808.67 319.73,807.58 313.14,807.03"/>
        <lane id=":850_0_1" index="1" disallow="pedestrian tram rail_urban rail rail_electric rail_fast ship" speed="13.41" length="22.38" width="3.50" shape="335.24,806.80 328.65,806.31 324.21,805.21 319.76,804.09 313.17,803.53"/>
        <lane id=":850_0_2" index="2" disallow="pedestrian tram rail_urban rail rail_electric rail_fast ship" speed="13.41" length="22.38" width="3.50" shape="335.24,803.30 328.67,802.81 324.22,801.71 319.78,800.59 313.21,800.03"/>
    </edge>
    <edge id=":985_0" function="internal">
        <lane id=":985_0_0" index="0" disallow="pedestrian tram rail_urban rail rail_electric rail_fast ship" speed="17.88" length="27.88" width="3.50" shape="519.66,858.29 499.81,839.08"/>
        <lane id=":985_0_1" index="1" disallow="pedestrian tram rail_urban rail rail_electric rail_fast ship" speed="17.88" length="27.88" width="3.50" shape="522.14,855.81 502.16,836.49"/>
        <lane id=":985_0_2" index="2" disallow="pedestrian tram rail_urban rail rail_electric rail_fast ship" speed="17.88" length="27.88" width="3.50" shape="524.61,853.34 504.51,833.90"/>
        <lane id=":985_0_3" index="3" disallow="pedestrian tram rail_urban rail rail_electric rail_fast ship" speed="17.88" length="27.88" width="3.52" shape="527.09,850.86 506.87,831.30"/>
    </edge>
    <edge id=":999_0" function="internal">
        <lane id=":999_0_0" index="0" disallow="all" speed="17.88" length="25.51" width="0.30" shape="564.84,902.49,0.35 559.21,897.44,0.25 554.66,894.77,0.18 550.07,892.14,0.10 544.34,887.19"/>
        <lane id=":999_0_1" index="1" disallow="all" speed="17.88" length="25.51" width="0.50" shape="565.13,902.21,0.35 559.50,897.16,0.25 554.95,894.49,0.18 550.36,891.86,0.10 544.62,886.91"/>
        <lane id=":999_0_2" index="2" disallow="pedestrian tram rail_urban rail rail_electric rail_fast ship" speed="17.88" length="25.51" width="3.50" shape="566.59,900.85,0.35 548.56,883.09"/>
        <lane id=":999_0_3" index="3" disallow="pedestrian tram rail_urban rail rail_electric rail_fast ship" speed="17.88" length="25.51" width="3.50" shape="569.15,898.46,0.35 551.07,880.65"/>
        <lane id=":999_0_4" index="4" disallow="pedestrian tram rail_urban rail rail_electric rail_fast ship" speed="17.88" length="25.51" width="3.51" shape="571.71,896.08,0.35 553.58,878.20"/>
    </edge>
    <edge id=":999_5" function="internal">
        <lane id=":999_5_0" index="0" allow="emergency authority" speed="2.42" length="0.56" width="3.51" shape="554.97,876.86 555.07,877.41"/>
    </edge>
    <edge id=":999_6" function="internal">
        <lane id=":999_6_0" index="0" allow="emergency authority" speed="2.42" length="2.26" width="3.51" shape="555.07,877.41 555.12,877.71 554.95,878.22 554.43,878.39 553.58,878.20"/>
    </edge>

    <edge id="-101" from="105" to="840" priority="1" type="shoulder|shoulder|biking|driving|driving|driving|shoulder" shape="420.99,823.91 421.01,824.87 421.03,825.82 421.05,826.78 421.08,827.74 421.10,828.69 421.12,829.65 421.14,830.60 421.16,831.56 421.18,832.52 421.20,833.47 421.22,834.43 421.24,835.43 421.26,836.43 421.28,837.43 421.29,838.42 421.31,839.42 421.32,840.42 421.33,841.42 421.33,842.42 421.34,843.15 421.34,844.07 421.35,845.00 421.35,845.93 421.35,846.86 421.36,847.78 421.36,848.71 421.37,849.71 421.37,850.71 421.38,851.28 421.39,852.18 421.40,853.09 421.41,853.99 421.41,854.90 421.42,855.90 421.43,856.90 421.43,857.89 421.44,858.89 421.44,859.69 421.44,860.46 421.44,861.24 421.44,862.01 421.44,862.78 421.44,863.34 421.44,864.31 421.44,865.27 421.44,866.24 421.44,867.21 421.44,868.18 421.44,869.15 421.45,870.12 421.45,871.09 421.45,872.05 421.45,873.02 421.45,873.99 421.45,874.96 421.45,875.93 421.45,876.90 421.45,877.87 421.45,878.83 421.46,879.83 421.45,880.83 421.45,881.83 421.44,882.83 421.44,883.36 421.43,884.36 421.42,885.35 421.42,886.35 421.41,887.35 421.40,888.34 421.39,889.34 421.38,890.33 421.38,891.33 421.37,892.32 421.36,893.32 421.35,894.32 421.34,895.31 421.34,896.31 421.33,897.30 421.32,898.30 421.31,899.30 421.30,900.29 421.30,901.29 421.29,902.10 421.28,902.95 421.27,903.81 421.26,904.66 421.25,905.51 421.24,906.52 421.23,907.52 421.23,908.52 421.22,909.52 421.23,910.52 421.23,911.52 421.24,912.52 421.25,913.53 421.25,914.17 421.27,915.16 421.28,916.16 421.29,917.16 421.30,918.15 421.32,919.15 421.33,920.14 421.34,921.14 421.36,922.14 421.37,923.13 421.38,924.13 421.40,925.13 421.42,926.14 421.44,927.14 421.46,928.14 421.48,929.03 421.50,930.01 421.53,930.99 421.55,931.97 421.58,932.95 421.60,933.93 421.63,934.91 421.65,935.89 421.67,936.87 421.70,937.86 421.72,938.86 421.74,939.86 421.75,940.38 421.77,941.34 421.78,942.30 421.80,943.26 421.82,944.22">
        <lane id="-101_0" index="0" allow="bicycle" speed="17.88" length="132.52" width="1.50" shape="431.49,823.69 431.51,824.65 431.53,825.60 431.55,826.51 431.58,827.47 431.60,828.47 431.62,829.43 431.64,830.38 431.66,831.34 431.68,832.30 431.70,833.25 431.72,834.22 431.74,835.22 431.76,836.22 431.78,837.27 431.79,838.26 431.81,839.26 431.82,840.32 431.83,841.37 431.83,842.36 431.84,843.09 431.84,844.01 431.85,844.94 431.85,845.93 431.85,846.80 431.86,847.72 431.86,848.66 431.87,849.66 431.87,850.64 431.88,851.14 431.89,852.06 431.90,852.97 431.91,853.93 431.91,854.85 431.92,855.80 431.93,856.85 431.93,857.84 431.94,858.83 431.94,859.69 431.94,860.46 431.94,861.24 431.94,862.01 431.94,862.78 431.94,863.34 431.94,864.31 431.94,865.27 431.94,866.24 431.94,867.21 431.94,868.18 431.94,869.10 431.95,870.07 431.95,871.09 431.95,872.05 431.95,873.02 431.95,873.99 431.95,874.96 431.95,875.93 431.95,876.90 431.95,877.87 431.95,878.78 431.96,879.83 431.95,880.88 431.95,881.88 431.94,882.90 431.94,883.43 431.93,884.47 431.92,885.40 431.92,886.40 431.91,887.46 431.90,888.45 431.89,889.45 431.88,890.38 431.88,891.38 431.87,892.43 431.86,893.42 431.85,894.43 431.84,895.36 431.84,896.36 431.83,897.41 431.82,898.40 431.81,899.41 431.80,900.34 431.80,901.35 431.79,902.23 431.78,903.07 431.77,903.93 431.76,904.78 431.75,905.62 431.74,906.62 431.73,907.57 431.73,908.57 431.72,909.52 431.73,910.47 431.73,911.47 431.74,912.42 431.75,913.47 431.75,914.04 431.77,915.00 431.78,916.06 431.79,917.05 431.80,917.99 431.82,918.99 431.83,920.03 431.84,920.98 431.86,921.98 431.87,923.02 431.88,923.97 431.90,924.92 431.92,925.93 431.94,926.93 431.96,927.92 431.98,928.81 432.00,929.74 432.03,930.72 432.05,931.70 432.08,932.68 432.10,933.66 432.13,934.64 432.15,935.68 432.17,936.60 432.20,937.60 432.22,938.65 432.24,939.65 432.25,940.17 432.27,941.18 432.28,942.14 432.30,943.04 432.57,956.20" type="biking">
            <param key="origId" value="101_-5"/>
        </lane>
        <lane id="-101_1" index="1" disallow="pedestrian tram rail_urban rail rail_electric rail_fast ship" speed="17.88" length="132.52" width="3.25" shape="429.11,823.74 429.13,824.70 429.15,825.65 429.17,826.57 429.20,827.53 429.22,828.52 429.24,829.48 429.26,830.43 429.28,831.39 429.30,832.35 429.32,833.30 429.34,834.26 429.36,835.27 429.38,836.27 429.40,837.31 429.41,838.30 429.43,839.30 429.44,840.34 429.45,841.38 429.45,842.37 429.46,843.10 429.46,844.03 429.47,844.96 429.48,845.93 429.47,846.82 429.48,847.74 429.48,848.67 429.49,849.67 429.49,850.66 429.50,851.17 429.51,852.09 429.52,853.00 429.53,853.95 429.53,854.86 429.54,855.82 429.55,856.86 429.55,857.85 429.56,858.84 429.56,859.69 429.56,860.46 429.56,861.24 429.56,862.01 429.56,862.78 429.56,863.34 429.56,864.31 429.56,865.27 429.56,866.24 429.56,867.21 429.56,868.18 429.56,869.11 429.57,870.08 429.57,871.09 429.57,872.05 429.57,873.02 429.57,873.99 429.57,874.96 429.57,875.93 429.57,876.90 429.57,877.87 429.57,878.79 429.58,879.83 429.57,880.87 429.57,881.87 429.56,882.88 429.56,883.41 429.55,884.44 429.54,885.39 429.54,886.39 429.53,887.43 429.52,888.42 429.51,889.42 429.50,890.37 429.50,891.37 429.49,892.40 429.48,893.40 429.47,894.40 429.46,895.35 429.46,896.35 429.45,897.38 429.44,898.38 429.43,899.38 429.42,900.33 429.42,901.33 429.41,902.20 429.40,903.05 429.39,903.91 429.38,904.76 429.37,905.60 429.36,906.60 429.35,907.56 429.35,908.56 429.35,909.52 429.35,910.48 429.35,911.48 429.36,912.44 429.37,913.48 429.37,914.07 429.39,915.04 429.40,916.08 429.41,917.08 429.42,918.03 429.44,919.03 429.45,920.06 429.46,921.02 429.48,922.02 429.49,923.05 429.50,924.01 429.52,924.97 429.54,925.98 429.56,926.98 429.58,927.97 429.60,928.86 429.62,929.80 429.65,930.78 429.67,931.76 429.70,932.74 429.72,933.72 429.75,934.70 429.77,935.72 429.79,936.66 429.82,937.66 429.84,938.70 429.86,939.70 429.87,940.22 429.89,941.21 429.90,942.17 429.92,943.09 430.20,956.25" type="driving">
            <param key="origId" value="101_-4"/>
        </lane>