<?xml version="1.0" encoding="UTF-8"?>

<!-- generated on 2023-03-21 17:25:16 by Eclipse SUMO netedit Version v1_15_0+1615-074980ce6e7
<configuration xmlns:xsi="http://www.w3.org/2001/XMLSchema-instance" xsi:noNamespaceSchemaLocation="http://sumo.dlr.de/xsd/netconvertConfiguration.xsd">

    <input>
        <sumo-net-file value="/home/x/code/OasisFlow/Maps/University@Alafaya.net.xml"/>
    </input>

    <output>
        <output-file value="/home/x/code/OasisFlow/Maps/University@Alafaya.net.xml"/>
    </output>

    <processing>
        <geometry.min-radius.fix.railways value="false"/>
        <geometry.max-grade.fix value="false"/>
        <offset.disable-normalization value="true"/>
        <lefthand value="0"/>
    </processing>

    <junctions>
        <no-turnarounds value="true"/>
        <junctions.corner-detail value="5"/>
        <junctions.limit-turn-speed value="5.50"/>
        <rectangular-lane-cut value="1"/>
    </junctions>

    <pedestrian>
        <walkingareas value="0"/>
    </pedestrian>

</configuration>
-->

<net version="1.9" junctionCornerDetail="5" rectangularLaneCut="true" limitTurnSpeed="5.50" xmlns:xsi="http://www.w3.org/2001/XMLSchema-instance" xsi:noNamespaceSchemaLocation="http://sumo.dlr.de/xsd/net_file.xsd">

    <location netOffset="1155.08,1296.74" convBoundary="0.00,0.00,707.72,1862.78" origBoundary="0.000000,0.000000,0.000000,0.000000" projParameter="+proj=tmerc +lat_0=28.602308 +lon_0=-81.200208 +k=1 +x_0=0 +y_0=0 +datum=WGS84 +units=m +geoidgrids=egm96_15.gtx +vunits=m +no_defs "/>

    <type id="bidirectional" priority="1" speed="1.39" disallow="pedestrian tram rail_urban rail rail_electric rail_fast ship" width="3.65"/>
    <type id="biking" priority="-1" speed="5.56" allow="bicycle" width="1.50"/>
    <type id="border" priority="0" speed="1.39" disallow="all" discard="1" width="0.10"/>
    <type id="driving" priority="1" speed="13.89" disallow="pedestrian tram rail_urban rail rail_electric rail_fast ship" width="3.65"/>
    <type id="entry" priority="1" speed="22.22" disallow="pedestrian tram rail_urban rail rail_electric rail_fast ship" width="3.65"/>
    <type id="exit" priority="1" speed="22.22" disallow="pedestrian tram rail_urban rail rail_electric rail_fast ship" width="3.65"/>
    <type id="median" priority="0" speed="1.39" disallow="all" discard="1" width="0.10"/>
    <type id="mwyEntry" priority="1" speed="22.22" allow="private emergency authority army vip passenger hov taxi bus coach delivery truck trailer motorcycle evehicle custom1 custom2" width="3.65"/>
    <type id="mwyExit" priority="1" speed="22.22" allow="private emergency authority army vip passenger hov taxi bus coach delivery truck trailer motorcycle evehicle custom1 custom2" width="3.65"/>
    <type id="none" priority="0" speed="1.39" disallow="all" discard="1" width="1.00"/>
    <type id="offRamp" priority="1" speed="22.22" allow="private emergency authority army vip passenger hov taxi bus coach delivery truck trailer motorcycle evehicle custom1 custom2" width="3.65"/>
    <type id="onRamp" priority="1" speed="22.22" allow="private emergency authority army vip passenger hov taxi bus coach delivery truck trailer motorcycle evehicle custom1 custom2" width="3.65"/>
    <type id="parking" priority="1" speed="1.39" disallow="pedestrian tram rail_urban rail rail_electric rail_fast ship" width="2.50"/>
    <type id="rail" priority="3" speed="33.33" allow="rail_urban rail rail_electric rail_fast" width="3.65"/>
    <type id="restricted" priority="0" speed="13.89" disallow="all" width="3.65"/>
    <type id="roadWorks" priority="0" speed="1.39" allow="authority" width="3.65"/>
    <type id="shoulder" priority="0" speed="1.39" disallow="all" discard="1" width="1.00"/>
    <type id="sidewalk" priority="-2" speed="2.78" allow="pedestrian" width="2.50"/>
    <type id="special1" priority="1" speed="22.22" allow="custom1" discard="1" width="3.65"/>
    <type id="special2" priority="1" speed="22.22" allow="custom2" discard="1" width="3.65"/>
    <type id="special3" priority="1" speed="22.22" allow="custom1 custom2" discard="1" width="3.65"/>
    <type id="stop" priority="1" speed="13.89" disallow="pedestrian tram rail_urban rail rail_electric rail_fast ship" width="3.65"/>
    <type id="tram" priority="2" speed="13.89" allow="tram" width="3.65"/>

    <edge id=":1.begin_0" function="internal">
        <lane id=":1.begin_0_0" index="0" disallow="pedestrian tram rail_urban rail rail_electric rail_fast ship" speed="3.82" length="5.11" width="3.50" shape="418.54,1862.76 417.68,1864.08 416.81,1864.53 415.93,1864.10 415.04,1862.80"/>
    </edge>
    <edge id=":102.begin_0" function="internal">
        <lane id=":102.begin_0_0" index="0" disallow="pedestrian tram rail_urban rail rail_electric rail_fast ship" speed="3.82" length="5.11" width="3.50" shape="203.01,348.65 201.69,347.79 201.24,346.92 201.67,346.04 202.97,345.15"/>
    </edge>
    <edge id=":105_0" function="internal">
        <lane id=":105_0_0" index="0" disallow="pedestrian tram rail_urban rail rail_electric rail_fast ship" speed="10.86" length="26.29" width="3.50" shape="398.38,824.38 397.26,817.01 394.25,811.72 389.34,808.52 382.55,807.40"/>
        <lane id=":105_0_1" index="1" disallow="pedestrian tram rail_urban rail rail_electric rail_fast ship" speed="11.41" length="29.15" width="3.50" shape="398.38,824.38 397.24,815.48 394.22,809.10 389.34,805.24 382.58,803.90"/>
        <lane id=":105_0_2" index="2" disallow="pedestrian tram rail_urban rail rail_electric rail_fast ship" speed="11.95" length="32.09" width="3.50" shape="398.38,824.38 397.21,813.95 394.20,806.47 389.33,801.96 382.62,800.40"/>
    </edge>
    <edge id=":105_3" function="internal">
        <lane id=":105_3_0" index="0" disallow="pedestrian tram rail_urban rail rail_electric rail_fast ship" speed="17.88" length="59.24" width="3.50" shape="403.13,824.29 401.55,764.97"/>
        <lane id=":105_3_1" index="1" disallow="pedestrian tram rail_urban rail rail_electric rail_fast ship" speed="17.88" length="59.24" width="3.50" shape="406.64,824.22 405.05,765.00"/>
        <lane id=":105_3_2" index="2" disallow="pedestrian tram rail_urban rail rail_electric rail_fast ship" speed="17.88" length="59.24" width="3.50" shape="410.16,824.15 408.55,765.04"/>
    </edge>
    <edge id=":105_6" function="internal">
        <lane id=":105_6_0" index="0" disallow="pedestrian tram rail_urban rail rail_electric rail_fast ship" speed="15.63" length="46.36" width="3.50" shape="413.66,824.08 415.49,806.85 421.76,794.68 432.48,787.58 434.95,787.25"/>
        <lane id=":105_6_1" index="1" disallow="pedestrian tram rail_urban rail rail_electric rail_fast ship" speed="15.23" length="46.07" width="3.75" shape="413.66,824.08 415.51,808.43 421.77,797.40 432.45,790.98 437.58,790.37"/>
        <lane id=":105_6_2" index="2" disallow="pedestrian tram rail_urban rail rail_electric rail_fast ship" speed="14.40" length="44.57" width="3.75" shape="417.16,824.01 418.82,810.07 424.41,800.25 433.95,794.53 442.01,793.57"/>
    </edge>
    <edge id=":105_36" function="internal">
        <lane id=":105_36_0" index="0" disallow="pedestrian tram rail_urban rail rail_electric rail_fast ship" speed="15.63" length="12.81" width="3.50" shape="434.95,787.25 447.65,785.55"/>
    </edge>
    <edge id=":105_37" function="internal">
        <lane id=":105_37_0" index="0" disallow="pedestrian tram rail_urban rail rail_electric rail_fast ship" speed="15.23" length="10.03" width="3.75" shape="437.58,790.37 447.54,789.18"/>
    </edge>
    <edge id=":105_38" function="internal">
        <lane id=":105_38_0" index="0" disallow="pedestrian tram rail_urban rail rail_electric rail_fast ship" speed="14.40" length="5.46" width="3.75" shape="442.01,793.57 447.43,792.93"/>
    </edge>
    <edge id=":105_9" function="internal">
        <lane id=":105_9_0" index="0" disallow="pedestrian tram rail_urban rail rail_electric rail_fast ship" speed="10.22" length="24.81" width="3.25" shape="446.92,811.45 439.03,811.94 433.43,814.15 430.12,818.09 429.11,823.74"/>
        <lane id=":105_9_1" index="1" disallow="pedestrian tram rail_urban rail rail_electric rail_fast ship" speed="10.78" length="27.74" width="3.25" shape="446.92,811.45 437.60,811.89 430.99,814.10 427.08,818.07 425.86,823.81"/>
        <lane id=":105_9_2" index="2" disallow="pedestrian tram rail_urban rail rail_electric rail_fast ship" speed="11.32" length="30.71" width="3.25" shape="446.92,811.45 436.18,811.85 428.55,814.05 424.03,818.06 422.61,823.88"/>
    </edge>
    <edge id=":105_12" function="internal">
        <lane id=":105_12_0" index="0" disallow="pedestrian tram rail_urban rail rail_electric rail_fast ship" speed="15.64" length="64.61" width="3.50" shape="446.92,811.45 382.55,807.40"/>
        <lane id=":105_12_1" index="1" disallow="pedestrian tram rail_urban rail rail_electric rail_fast ship" speed="15.64" length="64.61" width="3.50" shape="447.06,807.95 382.58,803.90"/>
        <lane id=":105_12_2" index="2" disallow="pedestrian tram rail_urban rail rail_electric rail_fast ship" speed="15.64" length="64.61" width="3.50" shape="447.20,804.45 382.62,800.40"/>
    </edge>
    <edge id=":105_15" function="internal">
        <lane id=":105_15_0" index="0" disallow="pedestrian tram rail_urban rail rail_electric rail_fast ship" speed="16.94" length="53.03" width="3.50" shape="447.35,800.95 427.18,797.99 412.83,791.01 404.28,780.00 403.79,777.29"/>
        <lane id=":105_15_1" index="1" disallow="pedestrian tram rail_urban rail rail_electric rail_fast ship" speed="16.57" length="52.90" width="3.50" shape="447.35,800.95 428.71,798.05 415.45,791.09 407.56,780.08 406.66,774.63"/>
        <lane id=":105_15_2" index="2" disallow="pedestrian tram rail_urban rail rail_electric rail_fast ship" speed="15.83" length="52.05" width="3.50" shape="447.49,797.44 430.34,794.81 418.13,788.54 410.87,778.61 409.41,770.06"/>
    </edge>
    <edge id=":105_39" function="internal">
        <lane id=":105_39_0" index="0" disallow="pedestrian tram rail_urban rail rail_electric rail_fast ship" speed="16.94" length="12.53" width="3.50" shape="403.79,777.29 401.55,764.97"/>
    </edge>
    <edge id=":105_40" function="internal">
        <lane id=":105_40_0" index="0" disallow="pedestrian tram rail_urban rail rail_electric rail_fast ship" speed="16.57" length="9.76" width="3.50" shape="406.66,774.63 405.05,765.00"/>
    </edge>
    <edge id=":105_41" function="internal">
        <lane id=":105_41_0" index="0" disallow="pedestrian tram rail_urban rail rail_electric rail_fast ship" speed="15.83" length="5.09" width="3.50" shape="409.41,770.06 408.55,765.04"/>
    </edge>
    <edge id=":105_18" function="internal">
        <lane id=":105_18_0" index="0" disallow="pedestrian tram rail_urban rail rail_electric rail_fast ship" speed="11.16" length="27.85" width="3.50" shape="433.39,765.30 434.28,774.01 436.96,780.28 441.41,784.13 447.65,785.55"/>
        <lane id=":105_18_1" index="1" disallow="pedestrian tram rail_urban rail rail_electric rail_fast ship" speed="11.74" length="30.93" width="3.75" shape="433.39,765.30 434.28,775.59 436.93,783.00 441.35,787.53 447.54,789.18"/>
        <lane id=":105_18_2" index="2" disallow="pedestrian tram rail_urban rail rail_electric rail_fast ship" speed="12.32" length="34.19" width="3.75" shape="433.39,765.30 434.27,777.24 436.90,785.82 441.29,791.05 447.43,792.93"/>
    </edge>
    <edge id=":105_21" function="internal">
        <lane id=":105_21_0" index="0" disallow="pedestrian tram rail_urban rail rail_electric rail_fast ship" speed="17.88" length="58.51" width="3.25" shape="428.74,765.30 429.11,823.74"/>
        <lane id=":105_21_1" index="1" disallow="pedestrian tram rail_urban rail rail_electric rail_fast ship" speed="17.88" length="58.51" width="3.25" shape="425.24,765.30 425.86,823.81"/>
        <lane id=":105_21_2" index="2" disallow="pedestrian tram rail_urban rail rail_electric rail_fast ship" speed="17.88" length="58.51" width="3.25" shape="421.74,765.30 422.61,823.88"/>
    </edge>
    <edge id=":105_24" function="internal">
        <lane id=":105_24_0" index="0" disallow="pedestrian tram rail_urban rail rail_electric rail_fast ship" speed="15.64" length="49.31" width="3.50" shape="418.24,765.30 416.01,783.86 409.32,797.06 398.16,804.91 396.00,805.25"/>
        <lane id=":105_24_1" index="1" disallow="pedestrian tram rail_urban rail rail_electric rail_fast ship" speed="15.64" length="49.60" width="3.50" shape="418.24,765.30 416.01,782.33 409.33,794.43 398.18,801.62 392.90,802.39"/>
        <lane id=":105_24_2" index="2" disallow="pedestrian tram rail_urban rail rail_electric rail_fast ship" speed="15.21" length="48.36" width="3.50" shape="414.61,765.30 412.62,780.78 406.62,791.79 396.62,798.33 388.44,799.54"/>
    </edge>
    <edge id=":105_42" function="internal">
        <lane id=":105_42_0" index="0" disallow="pedestrian tram rail_urban rail rail_electric rail_fast ship" speed="15.64" length="13.63" width="3.50" shape="396.00,805.25 382.55,807.40"/>
    </edge>
    <edge id=":105_43" function="internal">
        <lane id=":105_43_0" index="0" disallow="pedestrian tram rail_urban rail rail_electric rail_fast ship" speed="15.64" length="10.43" width="3.50" shape="392.90,802.39 382.58,803.90"/>
    </edge>
    <edge id=":105_44" function="internal">
        <lane id=":105_44_0" index="0" disallow="pedestrian tram rail_urban rail rail_electric rail_fast ship" speed="15.21" length="5.88" width="3.50" shape="388.44,799.54 382.62,800.40"/>
    </edge>
    <edge id=":105_27" function="internal">
        <lane id=":105_27_0" index="0" disallow="pedestrian tram rail_urban rail rail_electric rail_fast ship" speed="10.77" length="26.73" width="3.50" shape="382.81,779.14 390.96,778.39 396.79,775.78 400.32,771.31 401.55,764.97"/>
        <lane id=":105_27_1" index="1" disallow="pedestrian tram rail_urban rail rail_electric rail_fast ship" speed="11.33" length="29.74" width="3.50" shape="382.81,779.14 392.49,778.42 399.42,775.83 403.61,771.35 405.05,765.00"/>
        <lane id=":105_27_2" index="2" disallow="pedestrian tram rail_urban rail rail_electric rail_fast ship" speed="11.89" length="32.82" width="3.50" shape="382.81,779.14 394.02,778.45 402.04,775.87 406.89,771.40 408.55,765.04"/>
    </edge>
    <edge id=":105_30" function="internal">
        <lane id=":105_30_0" index="0" disallow="pedestrian tram rail_urban rail rail_electric rail_fast ship" speed="15.64" length="64.95" width="3.50" shape="382.75,782.39 447.65,785.55"/>
        <lane id=":105_30_1" index="1" disallow="pedestrian tram rail_urban rail rail_electric rail_fast ship" speed="15.64" length="64.95" width="3.75" shape="382.68,785.76 447.54,789.18"/>
        <lane id=":105_30_2" index="2" disallow="pedestrian tram rail_urban rail rail_electric rail_fast ship" speed="15.64" length="64.95" width="3.75" shape="382.61,789.14 447.43,792.93"/>
    </edge>
    <edge id=":105_33" function="internal">
        <lane id=":105_33_0" index="0" disallow="pedestrian tram rail_urban rail rail_electric rail_fast ship" speed="16.63" length="62.67" width="3.25" shape="382.54,792.51 402.68,794.81 417.16,800.79 425.97,810.43 429.11,823.74"/>
        <lane id=":105_33_1" index="1" disallow="pedestrian tram rail_urban rail rail_electric rail_fast ship" speed="16.27" length="59.95" width="3.25" shape="382.54,792.51 401.26,794.79 414.72,800.77 422.92,810.44 425.86,823.81"/>
        <lane id=":105_33_2" index="2" disallow="pedestrian tram rail_urban rail rail_electric rail_fast ship" speed="15.56" length="54.80" width="3.25" shape="382.48,795.89 399.82,797.94 412.30,803.29 419.89,811.93 422.61,823.88"/>
    </edge>
    <edge id=":13#1_0" function="internal">
        <lane id=":13#1_0_0" index="0" disallow="pedestrian tram rail_urban rail rail_electric rail_fast ship" speed="13.41" length="2.89" width="3.50" shape="481.21,793.97 483.97,795.11"/>
        <lane id=":13#1_0_1" index="1" disallow="pedestrian tram rail_urban rail rail_electric rail_fast ship" speed="13.41" length="2.89" width="3.75" shape="479.62,797.23 482.29,798.32"/>
        <lane id=":13#1_0_2" index="2" disallow="pedestrian tram rail_urban rail rail_electric rail_fast ship" speed="13.41" length="2.89" width="3.75" shape="477.97,800.60 480.56,801.64"/>
    </edge>
    <edge id=":13#2_0" function="internal">
        <lane id=":13#2_0_0" index="0" disallow="all" speed="13.41" length="7.01" width="0.30" shape="519.26,817.35 521.10,818.47 522.68,818.75 524.24,819.03 526.06,820.19"/>
        <lane id=":13#2_0_1" index="1" disallow="all" speed="13.41" length="7.01" width="0.50" shape="518.99,817.65 520.83,818.77 522.41,819.04 523.97,819.33 525.78,820.48"/>
        <lane id=":13#2_0_2" index="2" disallow="all" speed="13.41" length="7.01" width="2.99" shape="518.66,818.02 520.33,819.25 521.64,819.87 522.95,820.50 524.59,821.76"/>
        <lane id=":13#2_0_3" index="3" disallow="pedestrian tram rail_urban rail rail_electric rail_fast ship" speed="13.41" length="7.01" width="3.50" shape="517.33,819.51 522.38,824.14"/>
        <lane id=":13#2_0_4" index="4" disallow="pedestrian tram rail_urban rail rail_electric rail_fast ship" speed="13.41" length="7.01" width="3.75" shape="514.91,822.21 519.91,826.79"/>
        <lane id=":13#2_0_5" index="5" disallow="pedestrian tram rail_urban rail rail_electric rail_fast ship" speed="13.41" length="7.01" width="3.75" shape="512.41,825.01 517.35,829.53"/>
        <lane id=":13#2_0_6" index="6" disallow="all" speed="13.41" length="7.01" width="0.35" shape="511.08,826.50 515.96,831.03"/>
    </edge>
    <edge id=":180_0" function="internal">
        <lane id=":180_0_0" index="0" disallow="pedestrian tram rail_urban rail rail_electric rail_fast ship" speed="9.09" length="17.56" width="4.50" shape="174.69,719.66 174.09,713.87 172.50,709.71 169.92,707.19 166.35,706.30">
            <param key="origId" value="181_1"/>
        </lane>
    </edge>
    <edge id=":180_1" function="internal">
        <lane id=":180_1_0" index="0" disallow="pedestrian tram rail_urban rail rail_electric rail_fast ship" speed="10.88" length="27.04" width="4.50" shape="174.69,719.66 175.58,711.96 178.52,706.48 183.51,703.23 190.55,702.20">
            <param key="origId" value="182_1"/>
        </lane>
    </edge>
    <edge id=":180_2" function="internal">
        <lane id=":180_2_0" index="0" disallow="all" speed="15.65" length="24.17" width="0.50" shape="190.48,709.20 166.31,708.80">
            <param key="origId" value="187_2"/>
        </lane>
    </edge>
    <edge id=":180_3" function="internal">
        <lane id=":180_3_0" index="0" disallow="pedestrian tram rail_urban rail rail_electric rail_fast ship" speed="8.96" length="18.01" width="5.00" shape="190.51,706.70 186.42,707.47 183.53,709.88 181.84,713.93 181.35,719.61">
            <param key="origId" value="189_1"/>
        </lane>
    </edge>
    <edge id=":180_4" function="internal">
        <lane id=":180_4_0" index="0" disallow="pedestrian tram rail_urban rail rail_electric rail_fast ship" speed="15.65" length="24.16" width="4.50" shape="190.51,706.70 166.35,706.30">
            <param key="origId" value="187_1"/>
        </lane>
    </edge>
    <edge id=":180_5" function="internal">
        <lane id=":180_5_0" index="0" disallow="all" speed="15.65" length="24.12" width="0.50" shape="166.47,699.30 190.58,699.70">
            <param key="origId" value="188_-2"/>
        </lane>
        <lane id=":180_5_1" index="1" disallow="pedestrian tram rail_urban rail rail_electric rail_fast ship" speed="15.65" length="24.12" width="4.50" shape="166.43,701.80 190.55,702.20">
            <param key="origId" value="188_-1"/>
        </lane>
    </edge>
    <edge id=":180_7" function="internal">
        <lane id=":180_7_0" index="0" disallow="pedestrian tram rail_urban rail rail_electric rail_fast ship" speed="10.92" length="26.25" width="5.00" shape="166.43,701.80 172.85,703.01 177.48,706.37 180.31,711.91 181.35,719.61">
            <param key="origId" value="183_-1"/>
        </lane>
    </edge>
    <edge id=":190_0" function="internal">
        <lane id=":190_0_0" index="0" disallow="all" speed="17.88" length="16.77" width="0.50" shape="507.23,1095.98 505.79,1090.99 504.83,1087.55 504.17,1084.06 503.59,1078.91">
            <param key="origId" value="195_-4"/>
        </lane>
        <lane id=":190_0_1" index="1" disallow="pedestrian tram rail_urban rail rail_electric rail_fast ship" speed="17.88" length="16.77" width="3.50" shape="509.15,1095.45 507.74,1090.56 506.81,1087.19 506.15,1083.77 505.58,1078.73">
            <param key="origId" value="195_-3"/>
        </lane>
        <lane id=":190_0_2" index="2" disallow="pedestrian tram rail_urban rail rail_electric rail_fast ship" speed="17.88" length="16.77" width="3.50" shape="512.53,1094.52 511.16,1089.80 510.26,1086.56 509.62,1083.27 509.06,1078.41">
            <param key="origId" value="195_-2"/>
        </lane>
        <lane id=":190_0_3" index="3" disallow="pedestrian tram rail_urban rail rail_electric rail_fast ship" speed="17.88" length="16.77" width="3.50" shape="515.90,1093.58 514.59,1089.05 513.71,1085.93 513.08,1082.76 512.55,1078.08">
            <param key="origId" value="195_-1"/>
        </lane>
    </edge>
    <edge id=":190_4" function="internal">
        <lane id=":190_4_0" index="0" disallow="pedestrian tram rail_urban rail rail_electric rail_fast ship" speed="7.36" length="12.47" width="3.50" shape="498.46,1086.76 501.85,1086.22 504.16,1084.70 505.41,1082.21 505.58,1078.73">
            <param key="origId" value="200_-1"/>
        </lane>
    </edge>
    <edge id=":201_0" function="internal">
        <lane id=":201_0_0" index="0" disallow="all" speed="9.22" length="19.77" width="0.63" shape="338.19,355.75 335.40,349.06 332.44,344.59 329.31,342.35 326.00,342.32">
            <param key="origId" value="233_1"/>
        </lane>
        <lane id=":201_0_1" index="1" disallow="pedestrian tram rail_urban rail rail_electric rail_fast ship" speed="10.47" length="24.47" width="3.50" shape="341.64,354.56 338.29,346.91 334.43,341.92 330.08,339.57 325.22,339.88">
            <param key="origId" value="232_1"/>
        </lane>
    </edge>
    <edge id=":201_2" function="internal">
        <lane id=":201_2_0" index="0" disallow="pedestrian tram rail_urban rail rail_electric rail_fast ship" speed="11.32" length="29.13" width="3.50" shape="341.64,354.56 337.39,343.42 333.54,335.73 330.09,331.50 327.03,330.72">
            <param key="origId" value="239_1"/>
        </lane>
    </edge>
    <edge id=":201_3" function="internal">
        <lane id=":201_3_0" index="0" disallow="pedestrian tram rail_urban rail rail_electric rail_fast ship" speed="23.47" length="41.66" width="3.50" shape="348.25,352.27 335.41,312.64">
            <param key="origId" value="253_1"/>
        </lane>
        <lane id=":201_3_1" index="1" disallow="pedestrian tram rail_urban rail rail_electric rail_fast ship" speed="23.47" length="41.66" width="3.50" shape="351.56,351.13 338.72,311.50">
            <param key="origId" value="252_1"/>
        </lane>
    </edge>
    <edge id=":201_5" function="internal">
        <lane id=":201_5_0" index="0" disallow="pedestrian tram rail_urban rail rail_electric rail_fast ship" speed="17.88" length="44.11" width="3.50" shape="354.87,349.99 352.68,337.16 354.25,327.58 355.86,318.34 353.76,306.52">
            <param key="origId" value="216_1"/>
        </lane>
    </edge>
    <edge id=":201_6" function="internal">
        <lane id=":201_6_0" index="0" disallow="pedestrian tram rail_urban rail rail_electric rail_fast ship" speed="13.69" length="29.67" width="3.50" shape="354.87,349.99 352.40,337.62 354.35,327.65 358.81,322.38">
            <param key="origId" value="250_1"/>
        </lane>
    </edge>
    <edge id=":201_22" function="internal">
        <lane id=":201_22_0" index="0" disallow="pedestrian tram rail_urban rail rail_electric rail_fast ship" speed="13.69" length="14.98" width="3.50" shape="358.81,322.38 360.74,320.09 371.55,314.92">
            <param key="origId" value="250_1"/>
        </lane>
    </edge>
    <edge id=":201_7" function="internal">
        <lane id=":201_7_0" index="0" disallow="all" speed="7.68" length="13.97" width="0.30" shape="377.42,334.13 373.67,335.87 371.35,338.20 370.47,341.09 371.03,344.57">
            <param key="origId" value="222_1"/>
        </lane>
        <lane id=":201_7_1" index="1" disallow="pedestrian tram rail_urban rail rail_electric rail_fast ship" speed="9.17" length="19.06" width="3.50" shape="376.63,331.69 371.39,334.09 368.14,337.23 366.86,341.12 367.57,345.74">
            <param key="origId" value="226_1"/>
        </lane>
    </edge>
    <edge id=":201_9" function="internal">
        <lane id=":201_9_0" index="0" disallow="pedestrian tram rail_urban rail rail_electric rail_fast ship" speed="17.88" length="51.42" width="3.50" shape="374.08,323.85 325.22,339.88">
            <param key="origId" value="229_1"/>
        </lane>
    </edge>
    <edge id=":201_10" function="internal">
        <lane id=":201_10_0" index="0" disallow="pedestrian tram rail_urban rail rail_electric rail_fast ship" speed="17.88" length="47.67" width="3.50" shape="374.08,323.85 358.52,327.58 345.64,328.86 335.21,329.35 327.03,330.72">
            <param key="origId" value="237_1"/>
        </lane>
    </edge>
    <edge id=":201_11" function="internal">
        <lane id=":201_11_0" index="0" disallow="pedestrian tram rail_urban rail rail_electric rail_fast ship" speed="13.60" length="42.35" width="3.50" shape="374.08,323.85 361.37,326.49 351.25,325.31 343.69,320.32 338.72,311.50">
            <param key="origId" value="251_1"/>
        </lane>
    </edge>
    <edge id=":201_12" function="internal">
        <lane id=":201_12_0" index="0" disallow="pedestrian tram rail_urban rail rail_electric rail_fast ship" speed="11.54" length="29.61" width="3.50" shape="374.08,323.85 368.15,324.28 362.79,321.53 357.99,315.62 353.76,306.52">
            <param key="origId" value="215_1"/>
        </lane>
    </edge>
    <edge id=":201_13" function="internal">
        <lane id=":201_13_0" index="0" disallow="all" speed="7.28" length="11.84" width="0.63" shape="359.45,304.42 360.89,306.84 363.03,308.23 365.87,308.59 369.42,307.92">
            <param key="origId" value="210_-1"/>
        </lane>
        <lane id=":201_13_1" index="1" disallow="pedestrian tram rail_urban rail rail_electric rail_fast ship" speed="8.85" length="16.74" width="3.50" shape="357.05,305.31 359.18,309.19 362.14,311.53 365.92,312.32 370.53,311.57">
            <param key="origId" value="214_1"/>
        </lane>
    </edge>
    <edge id=":201_15" function="internal">
        <lane id=":201_15_0" index="0" disallow="pedestrian tram rail_urban rail rail_electric rail_fast ship" speed="17.88" length="41.83" width="3.50" shape="357.05,305.31 360.67,316.76 362.39,325.14 364.06,333.72 367.57,345.74">
            <param key="origId" value="202_1"/>
        </lane>
    </edge>
    <edge id=":201_16" function="internal">
        <lane id=":201_16_0" index="0" disallow="pedestrian tram rail_urban rail rail_electric rail_fast ship" speed="14.81" length="10.17" width="3.50" shape="357.05,305.31 358.06,315.43">
            <param key="origId" value="203_1"/>
        </lane>
    </edge>
    <edge id=":201_17" function="internal">
        <lane id=":201_17_0" index="0" disallow="pedestrian tram rail_urban rail rail_electric rail_fast ship" speed="13.44" length="4.72" width="3.50" shape="357.05,305.31 357.06,310.03">
            <param key="origId" value="208_1"/>
        </lane>
    </edge>
    <edge id=":201_23" function="internal">
        <lane id=":201_23_0" index="0" disallow="pedestrian tram rail_urban rail rail_electric rail_fast ship" speed="14.81" length="42.62" width="3.50" shape="358.06,315.43 358.08,315.66 353.12,324.87 342.17,332.94 325.22,339.88">
            <param key="origId" value="203_1"/>
        </lane>
    </edge>
    <edge id=":201_24" function="internal">
        <lane id=":201_24_0" index="0" disallow="pedestrian tram rail_urban rail rail_electric rail_fast ship" speed="13.44" length="38.16" width="3.50" shape="357.06,310.03 357.07,312.04 352.08,318.52 342.07,324.75 327.03,330.72">
            <param key="origId" value="208_1"/>
        </lane>
    </edge>
    <edge id=":201_18" function="internal">
        <lane id=":201_18_0" index="0" disallow="pedestrian tram rail_urban rail rail_electric rail_fast ship" speed="9.39" length="19.97" width="3.50" shape="325.93,327.40 331.42,324.84 334.83,321.53 336.16,317.46 335.41,312.64">
            <param key="origId" value="245_-1"/>
        </lane>
    </edge>
    <edge id=":201_19" function="internal">
        <lane id=":201_19_0" index="0" disallow="pedestrian tram rail_urban rail rail_electric rail_fast ship" speed="12.57" length="37.38" width="3.50" shape="325.93,327.40 339.54,322.14 348.71,316.90 353.46,311.70 353.76,306.52">
            <param key="origId" value="206_-1"/>
        </lane>
    </edge>
    <edge id=":201_20" function="internal">
        <lane id=":201_20_0" index="0" disallow="pedestrian tram rail_urban rail rail_electric rail_fast ship" speed="17.88" length="47.30" width="3.50" shape="325.93,327.40 371.55,314.92">
            <param key="origId" value="235_-1"/>
        </lane>
    </edge>
    <edge id=":201_21" function="internal">
        <lane id=":201_21_0" index="0" disallow="pedestrian tram rail_urban rail rail_electric rail_fast ship" speed="14.14" length="46.20" width="3.50" shape="325.93,327.40 337.55,325.54 347.26,328.36 355.06,335.84 360.95,348.00">
            <param key="origId" value="220_-1"/>
        </lane>
    </edge>
    <edge id=":24.begin_0" function="internal">
        <lane id=":24.begin_0_0" index="0" disallow="pedestrian tram rail_urban rail rail_electric rail_fast ship" speed="3.53" length="4.38" width="3.00" shape="175.06,978.66 174.03,977.78 173.75,976.99 174.21,976.29 175.42,975.68"/>
    </edge>