<routes>
  <vType height="1.5354934930801392" id="vehicle.audi.a2" length="3.7186214923858643" vClass="passenger" width="1.7924479246139526" />
  <vType height="1.382421851158142" id="vehicle.audi.tt" length="4.147226333618164" vClass="passenger" width="2.0032031536102295" />  
  <vType guiShape="truck" height="2.4768505096435547" id="vehicle.carlamotors.carlacola" length="5.1992292404174805" speedFactor="0.9" vClass="truck" width="2.6150190830230713" />
  <vType guiShape="police" height="1.5807031393051147" id="vehicle.dodge_charger.police" length="5.010976314544678" vClass="authority" width="2.054335832595825" />
  <vType height="1.8799999952316284" id="vehicle.jeep.wrangler_rubicon" length="3.8681068420410156" vClass="passenger" width="1.906570553779602" />
  <vType height="1.4150995016098022" id="vehicle.chevrolet.impala" length="5.369193077087402" vClass="passenger" width="2.052736520767212" />
  <vType height="1.6511509418487549" id="vehicle.audi.etron" length="4.892005443572998" vClass="evehicle" width="2.08632230758667" />
  <vType height="1.6781779527664185" id="vehicle.bmw.grandtourer" length="4.639087677001953" vClass="passenger" width="2.259321928024292" />
  <vType height="1.5373616218566895" id="vehicle.toyota.prius" length="4.538333415985107" vClass="evehicle" width="2.0011305809020996" />
  <vType height="1.6257729530334473" id="vehicle.citroen.c3" length="3.9753477573394775" vClass="passenger" width="1.862074851989746" />
  <vType height="1.5231821537017822" id="vehicle.tesla.model3" length="4.808821678161621" vClass="evehicle" width="2.1695058345794678" />
  <vType height="1.49351167678833" id="vehicle.diamondback.century" length="1.6562436819076538" vClass="bicycle" width="0.42141881585121155" />
  <vType height="1.590073823928833" id="vehicle.gazelle.omafiets" length="1.843441367149353" vClass="bicycle" width="0.4674844741821289" />
  <vType height="1.4637391567230225" id="vehicle.harley-davidson.low_rider" length="2.350175619125366" vClass="motorcycle" width="0.7662330269813538" />
  <vType height="1.5306309461593628" id="vehicle.bh.crossbike" length="1.5093227624893188" vClass="bicycle" width="0.8659406304359436" />
  <vType height="2.1439828872680664" id="vehicle.tesla.cybertruck" length="6.364232063293457" vClass="evehicle" width="2.3934903144836426" />
  <vType guiShape="passenger/van" height="2.0543651580810547" id="vehicle.volkswagen.t2" length="4.473711013793945" speedFactor="0.8" vClass="passenger" width="1.8112499713897705" />
  <vType height="1.374603033065796" id="vehicle.kawasaki.ninja" length="2.043684244155884" vClass="motorcycle" width="0.7969123125076294" />
  <vType height="1.4694602489471436" id="vehicle.seat.leon" length="4.207873821258545" vClass="passenger" width="1.8198652267456055" />
  <vType height="1.6345058679580688" id="vehicle.yamaha.yzf" length="2.1907684803009033" vClass="motorcycle" width="0.7662330269813538" />
  <vType height="1.8871309757232666" id="vehicle.nissan.patrol" length="4.519999980926514" vClass="passenger" width="1.9199999570846558" />
  <vType height="1.5232137441635132" id="vehicle.nissan.micra" length="3.6688475608825684" vClass="passenger" width="1.8561522960662842" />
  <vType id="vtype_pedestrian" vClass="pedestrian" speedFactor="1.0" speedDev="0.1" />
  <vType id="veh_passenger" vClass="passenger"/>
</routes>